src/计算结果.txt

计算始于2024-12-17 19:41:15
计算的节点数为：4 个
潮流迭代的次数为：4 次
运行时长为0.10722秒
最大不平衡量为: 1.0685e-09
平衡节点功率(MVA):136.8091+83.51084i
节点编号	节点电压幅值	节点电压角度
1                 1.000000           0.000000
2                 0.982421           -0.976122
3                 0.969005           -1.872177
4                 1.020000           1.523055

计算始于2024-12-17 19:41:24
计算的节点数为：4 个
潮流迭代的次数为：5 次
运行时长为0.045193秒
最大不平衡量为: 5.3291e-15
平衡节点功率(MVA):136.8091+83.51084i
节点编号	节点电压幅值	节点电压角度
1                 1.000000           0.000000
2                 0.982421           -0.976122
3                 0.969005           -1.872177
4                 1.020000           1.523055

计算始于2024-12-17 19:41:43
计算的节点数为：2383 个
潮流迭代的次数为：6 次
运行时长为0.26833秒
最大不平衡量为: 4.5616e-12
平衡节点功率(MVA):2500.1154+674.66999i
节点编号	节点电压幅值	节点电压角度
1                 0.996428           -1.134602
2                 0.994584           -0.639628
3                 0.968429           -30.376657
4                 0.967184           -9.354375
5                 0.984554           -22.098776
6                 0.972283           -15.739471
7                 0.969244           -24.961259
8                 0.978845           -11.765100
9                 0.965116           -19.103559
10                 1.000000           -23.478889
11                 0.974398           -7.617898
12                 0.965054           -27.661785
13                 0.972770           -24.967205
14                 0.969658           -5.352762
15                 0.947267           -17.850937
16                 1.000000           -0.524726
17                 1.000000           0.392753
18                 1.000000           0.000000
19                 0.974638           -26.407684
20                 0.994844           -2.191481
21                 0.970760           -25.510426
22                 0.973110           -13.816113
23                 0.990122           -19.134965
24                 0.991223           -13.837454
25                 0.993504           -12.208421
26                 0.985361           -22.500156
27                 0.983108           -11.434810
28                 0.983084           -11.429292
29                 1.000000           -17.421470
30                 1.000000           -17.422151
31                 1.000000           -12.499751
32                 0.999583           -12.540536
33                 0.978758           -12.370288
34                 1.005133           -11.825456
35                 1.005137           -11.834326
36                 0.966118           -16.030233
37                 0.990754           -20.325936
38                 0.990743           -20.324794
39                 0.989125           -11.034154
40                 0.989081           -11.022833
41                 1.000000           -9.835545
42                 1.000000           -9.849493
43                 1.000000           -8.265187
44                 1.000000           -8.279263
45                 1.000000           -18.664500
46                 0.999982           -18.662603
47                 0.981487           -12.291568
48                 0.989075           -17.398170
49                 0.989110           -17.403552
50                 0.996197           -9.883509
51                 0.996234           -9.903942
52                 0.985148           -15.007992
53                 0.987549           -14.883081
54                 0.993808           -12.129272
55                 0.990988           -19.195316
56                 0.998003           -4.951288
57                 0.997384           -8.259197
58                 0.997646           -8.259251
59                 0.995762           1.489539
60                 0.996377           -3.974197
61                 0.998999           3.458073
62                 0.998976           3.460015
63                 1.000000           1.932672
64                 1.000000           1.739706
65                 0.996328           -0.483704
66                 1.023495           -9.961785
67                 1.000000           -7.724638
68                 1.007334           -7.887798
69                 0.997825           -0.158090
70                 1.003291           -3.999024
71                 0.995502           -1.333566
72                 0.995502           -1.333566
73                 1.008800           -3.181213
74                 1.005834           -4.235187
75                 0.985160           -2.228057
76                 0.985202           -2.233845
77                 0.995097           -1.894210
78                 0.994344           -5.414153
79                 0.996273           -0.579407
80                 0.998100           -8.199113
81                 0.998103           -8.198658
82                 0.995055           2.110726
83                 1.000000           -0.158669
84                 1.000000           -0.159977
85                 1.000000           -1.883285
86                 1.000000           -1.880655
87                 0.993782           -2.804937
88                 0.993781           -2.805840
89                 0.992952           -0.618109
90                 0.998590           -1.532852
91                 0.995382           -0.003903
92                 0.985803           -6.206588
93                 1.000000           0.553050
94                 0.999973           0.551443
95                 1.000000           0.359732
96                 1.000000           0.354312
97                 1.000000           -5.208078
98                 0.987129           -8.785582
99                 0.987245           -8.774413
100                 0.986607           -5.796748
101                 0.986602           -5.786109
102                 0.994519           -0.505959
103                 1.000000           -1.692482
104                 1.000000           -1.684833
105                 1.000000           -5.585443
106                 0.999719           -5.598819
107                 1.000957           -4.349108
108                 1.003190           -4.150000
109                 1.000000           4.350778
110                 1.000000           4.352563
111                 1.000000           -15.989816
112                 0.999876           -15.983044
113                 0.958509           -30.656601
114                 0.970843           -29.870133
115                 0.934905           -24.171708
116                 0.934792           -24.158232
117                 0.976556           -34.960503
118                 0.966323           -45.547770
119                 0.966323           -45.547770
120                 0.952120           -43.502660
121                 0.967645           -30.847811
122                 0.967645           -30.847811
123                 1.000000           -21.914791
124                 1.000000           -21.907818
125                 1.000000           -41.582824
126                 1.000030           -41.567745
127                 1.000000           -32.814470
128                 0.999864           -32.823191
129                 0.961642           -38.203772
130                 0.938316           -39.470569
131                 1.000000           -27.035191
132                 1.000000           -27.053387
133                 0.986139           -24.484383
134                 0.986216           -24.484408
135                 0.965426           -45.426438
136                 0.965426           -45.426438
137                 0.941008           -19.554067
138                 0.941008           -19.554067
139                 1.000000           -22.244528
140                 1.000000           -22.253929
141                 0.976839           -41.581689
142                 0.963509           -45.797801
143                 0.983782           -36.850120
144                 0.983682           -36.849149
145                 0.911479           -36.508900
146                 0.911479           -36.508900
147                 0.953489           -35.528689
148                 0.953552           -35.522095
149                 0.980181           -37.668126
150                 0.962840           -29.700767
151                 0.962864           -29.709627
152                 0.961102           -25.656692
153                 0.961102           -25.656692
154                 0.937607           -37.718574
155                 0.969817           -31.741577
156                 1.043628           -35.466217
157                 0.976092           -33.362359
158                 0.976075           -33.354574
159                 0.982918           -29.982041
160                 0.983001           -29.990444
161                 0.977070           -36.244335
162                 0.977081           -36.245757
163                 1.010273           -31.693564
164                 1.010237           -31.697622
165                 0.938953           -27.165661
166                 0.979791           -30.833131
167                 0.979829           -30.829782
168                 0.977379           -31.835802
169                 0.977337           -31.843349
170                 0.971271           -32.590351
171                 0.971287           -32.586460
172                 0.984336           -32.998338
173                 0.984288           -32.997542
174                 0.970205           -30.817835
175                 0.970218           -30.825559
176                 1.000000           -28.727085
177                 1.000000           -28.724033
178                 0.998229           -37.762978
179                 0.998273           -37.757276
180                 1.000000           -8.500273
181                 1.000000           -10.661547
182                 1.000000           -24.253537
183                 1.011023           -12.831871
184                 1.000000           -5.068039
185                 1.000000           -9.303022
186                 1.000000           -41.728763
187                 0.968761           -29.810508
188                 0.934761           -37.843785
189                 0.923464           -34.443116
190                 1.000917           -6.168396
191                 0.998407           -7.679519
192                 1.000000           -24.978002
193                 1.002855           -24.899923
194                 1.000628           -25.228689
195                 0.997055           -31.387407
196                 1.000000           -39.782632
197                 0.976515           -17.831166
198                 1.000000           -31.601521
199                 1.005523           -9.297195
200                 1.000417           -30.144338
...

计算始于2024-12-17 19:42:00
计算的节点数为：9241 个
潮流迭代的次数为：7 次
运行时长为2.9989秒
最大不平衡量为: 3.9425e-12
平衡节点功率(MVA):2501.5071+705.90152i
节点编号	节点电压幅值	节点电压角度
1                 1.007596           -36.568965
2                 1.031734           -8.495740
3                 1.017842           -21.088200
4                 1.020495           -6.894086
5                 0.989940           -48.528728
6                 1.038476           -41.387539
7                 0.969174           -33.367087
8                 1.023005           -17.246395
9                 1.032658           -0.119026
10                 1.033354           -23.745326
11                 0.965106           -28.240414
12                 1.034508           -23.183182
13                 1.013866           -47.324646
14                 1.141469           -18.346449
15                 1.021650           -48.548608
16                 1.032431           9.595541
17                 1.010560           7.664018
18                 1.026728           19.068631
19                 1.005110           -35.623090
20                 1.024517           10.208037
21                 1.031342           -21.353112
22                 1.031712           -17.986812
23                 1.025351           -23.487199
24                 0.961062           -29.686572
25                 1.028526           13.908236
26                 1.029613           -3.185912
27                 1.085495           15.030594
28                 1.004938           -28.675745
29                 1.004797           -13.732162
30                 1.023531           -26.518787
31                 0.905486           -32.278665
32                 1.003223           -42.674678
33                 1.026534           -38.296264
34                 1.028471           -22.104052
35                 1.026474           -33.917362
36                 1.045485           -18.848279
37                 0.972197           -27.275606
38                 1.022837           27.496019
39                 1.003511           -37.970727
40                 0.999073           -28.877615
41                 1.008626           -5.296653
42                 1.042393           -48.834870
43                 1.028739           -12.374797
44                 1.040743           -21.622062
45                 1.048063           -22.730472
46                 0.958465           -27.091573
47                 0.985856           -25.592133
48                 1.045488           -23.732466
49                 1.020323           -35.277757
50                 1.025008           -0.928561
51                 1.006665           -47.848728
52                 1.017718           0.964898
53                 1.053432           -9.059794
54                 1.023781           -34.675862
55                 0.996934           10.646007
56                 1.010626           -15.927184
57                 1.006533           -6.161457
58                 1.027491           -18.484464
59                 1.026752           -23.728976
60                 1.024357           -17.668468
61                 1.092746           47.044988
62                 0.970171           -25.476191
63                 1.019066           6.456250
64                 1.058201           -21.140218
65                 0.920195           -30.780914
66                 1.075926           -16.722610
67                 1.076866           -20.406640
68                 0.932262           -30.241028
69                 1.016884           -0.249176
70                 1.021842           -3.745985
71                 1.045666           4.049287
72                 1.007413           -40.815410
73                 1.011300           -36.070318
74                 1.048474           -26.143613
75                 1.019041           -52.912223
76                 1.022881           27.505874
77                 1.008262           -50.141029
78                 0.981823           -18.607617
79                 1.014369           14.795355
80                 1.068393           -23.995161
81                 1.010926           62.107015
82                 1.032331           -31.441330
83                 0.980398           14.559273
84                 1.018103           -23.800589
85                 1.022071           19.945892
86                 1.051084           -21.451690
87                 1.017890           -12.754974
88                 1.006747           -36.204592
89                 0.991070           -2.228330
90                 1.042057           -27.344330
91                 1.027047           1.900264
92                 1.021145           4.750022
93                 1.058659           -18.774329
94                 1.007961           -21.642347
95                 0.980008           -27.124548
96                 1.036749           -14.957522
97                 1.053331           3.444688
98                 1.047745           -1.760030
99                 1.025051           -32.400454
100                 1.033863           -26.820937
101                 0.964841           -28.251929
102                 1.004008           -49.730611
103                 0.992022           -31.064562
104                 0.965343           -54.609363
105                 1.036702           -33.692384
106                 1.162404           -19.441406
107                 1.083135           42.738641
108                 1.005192           -15.658428
109                 1.004858           -8.370589
110                 0.994256           -28.906396
111                 1.048517           -23.047974
112                 1.028368           -8.861903
113                 1.027410           -13.784517
114                 1.026508           13.314075
115                 1.061624           -19.169688
116                 1.038743           -20.145036
117                 1.002456           -22.084056
118                 1.023922           -11.081544
119                 1.066623           -18.088420
120                 1.017688           -20.979353
121                 1.061684           -22.873557
122                 1.002659           9.553874
123                 1.041503           -20.065332
124                 1.077112           8.570205
125                 1.022282           -17.704432
126                 1.009839           7.171291
127                 1.021757           -27.647564
128                 1.015199           -15.387955
129                 1.019277           -11.374256
130                 1.057950           -47.023932
131                 1.032517           -37.222575
132                 1.062407           -43.653919
133                 1.021440           2.555655
134                 1.012932           9.718723
135                 1.021985           -21.094526
136                 1.006486           -33.579675
137                 1.003064           62.387914
138                 1.067472           -41.672180
139                 1.013038           18.131943
140                 1.026303           18.690398
141                 1.050716           -0.413658
142                 1.042299           -30.113890
143                 1.022346           5.270135
144                 1.063860           20.127852
145                 1.038236           -8.851716
146                 1.085632           -23.428082
147                 1.058041           -12.433768
148                 1.034625           -7.914059
149                 1.021683           -40.133360
150                 1.062129           2.643662
151                 1.013748           -20.550844
152                 1.050332           -2.290178
153                 1.013850           -29.241097
154                 1.016732           -37.112349
155                 1.019833           -26.749983
156                 0.953091           -28.688658
157                 1.014655           -10.869679
158                 1.015033           7.986466
159                 1.021336           -26.564953
160                 1.031014           4.342045
161                 1.091003           -24.779884
162                 1.052311           -14.819515
163                 1.045454           -10.121765
164                 1.020840           0.087591
165                 1.073159           -20.939525
166                 1.040747           13.465802
167                 1.039785           -3.440865
168                 1.033177           15.577190
169                 1.045531           -26.310082
170                 1.011451           36.620924
171                 1.061970           -24.851174
172                 1.010113           -46.943465
173                 1.054695           16.173642
174                 1.070902           -27.468720
175                 1.003790           -38.342676
176                 1.040845           -25.414218
177                 0.969765           -43.034104
178                 1.013212           -27.222766
179                 1.043661           -49.644427
180                 1.029532           -25.484159
181                 1.040586           -36.435658
182                 1.035560           40.204236
183                 1.031465           -26.041147
184                 1.037533           -11.199426
185                 1.007995           -3.699898
186                 1.009643           -27.793016
187                 1.002469           -35.687639
188                 1.015218           -19.124733
189                 1.001230           -25.519249
190                 1.025544           -18.918528
191                 1.016228           -35.698510
192                 1.048355           66.710672
193                 1.031332           25.519883
194                 1.029310           13.725841
195                 1.048912           -8.501632
196                 1.068851           -25.766089
197                 1.099985           46.037110
198                 1.011285           -15.654631
199                 1.017684           1.181522
200                 1.010977           62.266156
...

计算始于2024-12-17 19:42:24
计算的节点数为：13659 个
潮流迭代的次数为：10 次
运行时长为7.2092秒
最大不平衡量为: 6.5183e-12
平衡节点功率(MVA):154.76426+1460.0008i
节点编号	节点电压幅值	节点电压角度
1                 1.031695           0.000000
2                 1.002501           -176.052059
3                 0.982250           -175.088646
4                 1.005106           -155.331939
5                 0.990360           -159.220749
6                 1.004435           -143.543897
7                 0.979089           172.671133
8                 1.023893           -179.855350
9                 0.995357           -152.423176
10                 0.935542           -179.258048
11                 1.038514           -164.259973
12                 1.004054           -67.776552
13                 1.046256           -146.516757
14                 1.029138           -161.692593
15                 0.967332           -176.693428
16                 1.048400           -171.862283
17                 1.010385           173.548702
18                 1.043087           -154.781139
19                 1.029816           172.954998
20                 0.995808           -135.618191
21                 1.024265           -178.985274
22                 1.012636           -130.763630
23                 1.023306           -119.266657
24                 0.977830           -178.793010
25                 1.011878           -135.106491
26                 1.032352           -159.289459
27                 1.032372           -155.815003
28                 0.999448           -170.062465
29                 1.033319           -164.679993
30                 1.015485           -170.477027
31                 1.029543           -124.655963
32                 1.010195           -139.870097
33                 1.018631           -177.507799
34                 1.049810           -124.642106
35                 1.009838           -176.503712
36                 0.983089           -151.111356
37                 1.028088           -174.889163
38                 0.918505           -178.671284
39                 1.073284           -165.764872
40                 1.002804           178.972967
41                 1.020846           -176.505397
42                 0.985213           -139.096841
43                 1.023166           -168.301014
44                 0.990869           -177.020226
45                 1.012099           175.187954
46                 1.040636           -164.880897
47                 0.975607           -172.507045
48                 1.056678           -111.664621
49                 0.998828           -176.345404
50                 0.983503           -174.698787
51                 1.011416           -123.161273
52                 0.988126           -151.548445
53                 1.016104           172.595955
54                 1.021005           -142.822619
55                 1.037255           -159.550836
56                 1.043659           -168.802723
57                 0.954270           -172.452434
58                 0.981117           -170.734627
59                 1.038613           -169.789739
60                 1.000803           -173.767125
61                 1.047449           -133.686134
62                 1.058268           -151.088035
63                 1.058268           -151.088035
64                 1.008598           173.861711
65                 0.999113           -137.596049
66                 1.034768           -157.633790
67                 0.975751           -172.163969
68                 1.035023           -176.663367
69                 1.035023           -176.663367
70                 1.006091           -172.969137
71                 1.020293           -152.639181
72                 1.020293           -152.639181
73                 0.994073           -127.993774
74                 1.024987           -148.136467
75                 1.024987           -148.136467
76                 1.024987           -148.136467
77                 1.038344           -155.775204
78                 1.027383           -148.113311
79                 1.016716           -141.232960
80                 1.007912           -154.245920
81                 0.990484           -152.596746
82                 1.003644           -155.993179
83                 1.017167           -161.390923
84                 0.990347           -179.465281
85                 1.024564           -161.797723
86                 1.023881           -171.028094
87                 1.014589           -175.677324
88                 1.014589           -175.677324
89                 1.067038           -91.459401
90                 0.965698           -170.640373
91                 1.010261           -132.417300
92                 1.056379           -167.500042
93                 0.933000           -177.252848
94                 1.022611           -145.363288
95                 0.998108           -163.439533
96                 1.043225           -170.463821
97                 1.043225           -170.463821
98                 1.043225           -170.463821
99                 1.031885           -177.918664
100                 1.031885           -177.918664
101                 1.043225           -170.463821
102                 1.043225           -170.463821
103                 0.997002           -138.858150
104                 1.052257           -118.002937
105                 1.142365           -166.116794
106                 1.042008           -134.214751
107                 1.028153           -85.587431
108                 1.020223           -179.396262
109                 0.997951           -179.149828
110                 1.051233           -77.049766
111                 1.040708           -168.085564
112                 1.014803           168.353976
113                 1.056732           -111.654937
114                 1.030832           -175.754341
115                 1.019000           -168.940423
116                 1.015752           171.259579
117                 0.982673           -163.882495
118                 1.005862           -123.471873
119                 1.047392           -169.331464
120                 0.992228           -75.960571
121                 1.045359           -156.536285
122                 0.988692           -123.824640
123                 1.026017           -119.471711
124                 1.046427           -167.991531
125                 0.979547           -124.174418
126                 1.054260           -170.002170
127                 1.015987           -158.133132
128                 0.992500           -170.678273
129                 0.998845           -140.804612
130                 1.032578           -165.446144
131                 1.009065           -133.948397
132                 0.996117           -135.616850
133                 1.042317           -153.596667
134                 1.044129           -170.703753
135                 1.030832           -175.754341
136                 1.049674           -77.742366
137                 1.037282           -164.582108
138                 0.998661           -167.090051
139                 0.982796           -175.593473
140                 1.008176           -152.773598
141                 1.080065           -140.100362
142                 1.010128           -166.616265
143                 1.042718           -173.719112
144                 1.034631           -158.186949
145                 1.040587           -128.452896
146                 1.044313           -129.565849
147                 1.044313           -129.565849
148                 1.014043           -132.738692
149                 0.998575           170.962246
150                 1.035764           -173.452628
151                 1.023215           -148.409226
152                 0.955891           165.950422
153                 1.027348           -146.777909
154                 1.052520           -89.382822
155                 1.001838           -172.005985
156                 1.034597           -147.633137
157                 0.993128           -178.790570
158                 1.030549           -153.012428
159                 1.003562           -159.507387
160                 1.005182           -154.868678
161                 1.034597           -147.633137
162                 1.034597           -147.633137
163                 0.999237           -176.875739
164                 1.041956           -162.923704
165                 1.030832           -175.754341
166                 1.060049           -147.402371
167                 1.025220           -151.667857
168                 0.982816           -131.490536
169                 1.044239           -157.188227
170                 0.968995           -167.321773
171                 1.004257           -175.973866
172                 0.954232           -172.687863
173                 1.071444           -165.528904
174                 0.983009           -176.060758
175                 1.055556           -168.892358
176                 0.994654           -128.952103
177                 1.039899           -159.335759
178                 1.066285           -127.702358
179                 1.023144           -175.463302
180                 0.938903           -174.967919
181                 1.020300           -154.204192
182                 1.054937           -161.828238
183                 1.002847           -165.850372
184                 1.020189           -153.395633
185                 1.009939           -149.893146
186                 1.043198           174.477511
187                 1.026667           -178.719143
188                 1.021381           171.763703
189                 1.043156           177.960085
190                 1.006844           -135.938940
191                 0.973828           -135.774302
192                 1.006618           -159.623244
193                 0.982938           -176.722310
194                 0.983957           -75.661683
195                 1.058915           179.929330
196                 1.021915           -176.134276
197                 1.005341           -167.908226
198                 0.999633           -166.390040
199                 1.029709           -120.044951
200                 0.982030           -140.783375
...

计算始于2024-12-17 20:54:16
计算的节点数为：5 个
潮流迭代的次数为：4 次
运行时长为0.1153秒
最大不平衡量为: 6.4168e-11
平衡节点功率(MVA):-394.9728+52.65293i
节点编号	节点电压幅值	节点电压角度
1                 1.000000           3.273361
2                 0.989261           -0.759269
3                 1.000000           -0.492259
4                 1.000000           0.000000
5                 1.000000           4.112031

计算始于2024-12-17 20:54:49
计算的节点数为：30 个
潮流迭代的次数为：5 次
运行时长为0.041221秒
最大不平衡量为: 6.2728e-15
平衡节点功率(MVA):25.9738-0.998484i
节点编号	节点电压幅值	节点电压角度
1                 1.000000           0.000000
2                 1.000000           -0.415491
3                 0.983138           -1.522074
4                 0.980093           -1.794728
5                 0.982406           -1.863823
6                 0.973184           -2.266957
7                 0.967355           -2.651837
8                 0.960624           -2.725769
9                 0.980506           -2.996933
10                 0.984404           -3.374936
11                 0.980506           -2.996933
12                 0.985468           -1.536912
13                 1.000000           1.476163
14                 0.976677           -2.308035
15                 0.980229           -2.311835
16                 0.977396           -2.644486
17                 0.976865           -3.392339
18                 0.968440           -3.478388
19                 0.965287           -3.958205
20                 0.969166           -3.871024
21                 0.993383           -3.488393
22                 1.000000           -3.392729
23                 1.000000           -1.589228
24                 0.988566           -2.631461
25                 0.990215           -1.689989
26                 0.972194           -2.139346
27                 1.000000           -0.828439
28                 0.974715           -2.265929
29                 0.979597           -2.128498
30                 0.967883           -3.041524

计算始于2024-12-17 20:55:31
计算的节点数为：118 个
潮流迭代的次数为：6 次
运行时长为0.023818秒
最大不平衡量为: 3.2863e-14
平衡节点功率(MVA):513.8629-82.42406i
节点编号	节点电压幅值	节点电压角度
1                 0.955000           10.972740
2                 0.971393           11.512547
3                 0.967692           11.856190
4                 0.998000           15.574090
5                 1.001985           16.019179
6                 0.990000           13.291872
7                 0.989328           12.847338
8                 1.015000           21.040584
9                 1.042918           28.294689
10                 1.050000           35.875599
11                 0.985089           13.005800
12                 0.990000           12.488912
13                 0.968302           11.629748
14                 0.983591           11.771459
15                 0.970000           11.474147
16                 0.983897           12.187338
17                 0.995089           13.995221
18                 0.973000           11.780792
19                 0.962000           11.314648
20                 0.956934           12.191004
21                 0.957725           13.777986
22                 0.969019           16.331637
23                 0.999469           21.248704
24                 0.992000           21.113869
25                 1.050000           28.179839
26                 1.015000           29.960195
27                 0.968000           15.604439
28                 0.961568           13.878871
29                 0.963216           12.885420
30                 0.985333           19.033753
31                 0.967000           13.001899
32                 0.963000           15.060641
33                 0.970934           10.853773
34                 0.984000           11.511416
35                 0.980452           11.055050
36                 0.980000           11.055512
37                 0.990661           11.966679
38                 0.961286           17.107590
39                 0.969961           8.576584
40                 0.970000           7.495505
41                 0.966832           7.051551
42                 0.985000           8.652890
43                 0.977121           11.460359
44                 0.984436           13.943280
45                 0.986383           15.772584
46                 1.005000           18.575733
47                 1.017052           20.799125
48                 1.020633           20.018503
49                 1.025000           21.021613
50                 1.001083           18.982855
51                 0.966877           16.364183
52                 0.956818           15.410851
53                 0.945983           14.436149
54                 0.955000           15.348053
55                 0.952000           15.058217
56                 0.954000           15.244870
57                 0.970583           16.449231
58                 0.959039           15.592484
59                 0.985000           19.448465
60                 0.993156           23.230120
61                 0.995000           24.121486
62                 0.998000           23.504834
63                 0.968737           22.827409
64                 0.983739           24.593361
65                 1.005000           27.719103
66                 1.050000           27.558679
67                 1.019682           24.918966
68                 1.003249           27.597833
69                 1.035000           30.000000
70                 0.984000           22.617920
71                 0.986845           22.206903
72                 0.980000           21.108561
73                 0.991000           21.995409
74                 0.958000           21.668562
75                 0.967332           22.930211
76                 0.943000           21.798787
77                 1.006000           26.750637
78                 1.003424           26.446613
79                 1.009223           26.745437
80                 1.040000           28.990069
81                 0.996807           28.144890
82                 0.988545           27.271737
83                 0.984377           28.463946
84                 0.979704           31.000309
85                 0.985000           32.555621
86                 0.986691           31.186173
87                 1.015000           31.445385
88                 0.987453           35.690351
89                 1.005000           39.748343
90                 0.985000           33.338370
91                 0.980000           33.350635
92                 0.990000           33.880799
93                 0.985433           30.849095
94                 0.989830           28.682205
95                 0.980332           27.709556
96                 0.992283           27.542586
97                 1.011166           27.915843
98                 1.023509           27.433349
99                 1.010000           27.066767
100                 1.017000           28.058842
101                 0.991420           29.646882
102                 0.989131           32.364986
103                 1.010000           24.317752
104                 0.971000           21.747767
105                 0.965000           20.643565
106                 0.961146           20.383404
107                 0.952000           17.582668
108                 0.966212           19.443485
109                 0.967026           18.990886
110                 0.973000           18.144027
111                 0.980000           19.789108
112                 0.975000           15.044809
113                 0.993000           13.992582
114                 0.960093           14.726406
115                 0.960023           14.718126
116                 1.005000           27.162845
117                 0.973824           10.947912
118                 0.949438           21.941867

计算始于2024-12-17 20:56:12
计算的节点数为：9241 个
潮流迭代的次数为：7 次
运行时长为2.9852秒
最大不平衡量为: 3.9425e-12
平衡节点功率(MVA):2501.5071+705.90152i
节点编号	节点电压幅值	节点电压角度
1                 1.007596           -36.568965
2                 1.031734           -8.495740
3                 1.017842           -21.088200
4                 1.020495           -6.894086
5                 0.989940           -48.528728
6                 1.038476           -41.387539
7                 0.969174           -33.367087
8                 1.023005           -17.246395
9                 1.032658           -0.119026
10                 1.033354           -23.745326
11                 0.965106           -28.240414
12                 1.034508           -23.183182
13                 1.013866           -47.324646
14                 1.141469           -18.346449
15                 1.021650           -48.548608
16                 1.032431           9.595541
17                 1.010560           7.664018
18                 1.026728           19.068631
19                 1.005110           -35.623090
20                 1.024517           10.208037
21                 1.031342           -21.353112
22                 1.031712           -17.986812
23                 1.025351           -23.487199
24                 0.961062           -29.686572
25                 1.028526           13.908236
26                 1.029613           -3.185912
27                 1.085495           15.030594
28                 1.004938           -28.675745
29                 1.004797           -13.732162
30                 1.023531           -26.518787
31                 0.905486           -32.278665
32                 1.003223           -42.674678
33                 1.026534           -38.296264
34                 1.028471           -22.104052
35                 1.026474           -33.917362
36                 1.045485           -18.848279
37                 0.972197           -27.275606
38                 1.022837           27.496019
39                 1.003511           -37.970727
40                 0.999073           -28.877615
41                 1.008626           -5.296653
42                 1.042393           -48.834870
43                 1.028739           -12.374797
44                 1.040743           -21.622062
45                 1.048063           -22.730472
46                 0.958465           -27.091573
47                 0.985856           -25.592133
48                 1.045488           -23.732466
49                 1.020323           -35.277757
50                 1.025008           -0.928561
51                 1.006665           -47.848728
52                 1.017718           0.964898
53                 1.053432           -9.059794
54                 1.023781           -34.675862
55                 0.996934           10.646007
56                 1.010626           -15.927184
57                 1.006533           -6.161457
58                 1.027491           -18.484464
59                 1.026752           -23.728976
60                 1.024357           -17.668468
61                 1.092746           47.044988
62                 0.970171           -25.476191
63                 1.019066           6.456250
64                 1.058201           -21.140218
65                 0.920195           -30.780914
66                 1.075926           -16.722610
67                 1.076866           -20.406640
68                 0.932262           -30.241028
69                 1.016884           -0.249176
70                 1.021842           -3.745985
71                 1.045666           4.049287
72                 1.007413           -40.815410
73                 1.011300           -36.070318
74                 1.048474           -26.143613
75                 1.019041           -52.912223
76                 1.022881           27.505874
77                 1.008262           -50.141029
78                 0.981823           -18.607617
79                 1.014369           14.795355
80                 1.068393           -23.995161
81                 1.010926           62.107015
82                 1.032331           -31.441330
83                 0.980398           14.559273
84                 1.018103           -23.800589
85                 1.022071           19.945892
86                 1.051084           -21.451690
87                 1.017890           -12.754974
88                 1.006747           -36.204592
89                 0.991070           -2.228330
90                 1.042057           -27.344330
91                 1.027047           1.900264
92                 1.021145           4.750022
93                 1.058659           -18.774329
94                 1.007961           -21.642347
95                 0.980008           -27.124548
96                 1.036749           -14.957522
97                 1.053331           3.444688
98                 1.047745           -1.760030
99                 1.025051           -32.400454
100                 1.033863           -26.820937
101                 0.964841           -28.251929
102                 1.004008           -49.730611
103                 0.992022           -31.064562
104                 0.965343           -54.609363
105                 1.036702           -33.692384
106                 1.162404           -19.441406
107                 1.083135           42.738641
108                 1.005192           -15.658428
109                 1.004858           -8.370589
110                 0.994256           -28.906396
111                 1.048517           -23.047974
112                 1.028368           -8.861903
113                 1.027410           -13.784517
114                 1.026508           13.314075
115                 1.061624           -19.169688
116                 1.038743           -20.145036
117                 1.002456           -22.084056
118                 1.023922           -11.081544
119                 1.066623           -18.088420
120                 1.017688           -20.979353
121                 1.061684           -22.873557
122                 1.002659           9.553874
123                 1.041503           -20.065332
124                 1.077112           8.570205
125                 1.022282           -17.704432
126                 1.009839           7.171291
127                 1.021757           -27.647564
128                 1.015199           -15.387955
129                 1.019277           -11.374256
130                 1.057950           -47.023932
131                 1.032517           -37.222575
132                 1.062407           -43.653919
133                 1.021440           2.555655
134                 1.012932           9.718723
135                 1.021985           -21.094526
136                 1.006486           -33.579675
137                 1.003064           62.387914
138                 1.067472           -41.672180
139                 1.013038           18.131943
140                 1.026303           18.690398
141                 1.050716           -0.413658
142                 1.042299           -30.113890
143                 1.022346           5.270135
144                 1.063860           20.127852
145                 1.038236           -8.851716
146                 1.085632           -23.428082
147                 1.058041           -12.433768
148                 1.034625           -7.914059
149                 1.021683           -40.133360
150                 1.062129           2.643662
151                 1.013748           -20.550844
152                 1.050332           -2.290178
153                 1.013850           -29.241097
154                 1.016732           -37.112349
155                 1.019833           -26.749983
156                 0.953091           -28.688658
157                 1.014655           -10.869679
158                 1.015033           7.986466
159                 1.021336           -26.564953
160                 1.031014           4.342045
161                 1.091003           -24.779884
162                 1.052311           -14.819515
163                 1.045454           -10.121765
164                 1.020840           0.087591
165                 1.073159           -20.939525
166                 1.040747           13.465802
167                 1.039785           -3.440865
168                 1.033177           15.577190
169                 1.045531           -26.310082
170                 1.011451           36.620924
171                 1.061970           -24.851174
172                 1.010113           -46.943465
173                 1.054695           16.173642
174                 1.070902           -27.468720
175                 1.003790           -38.342676
176                 1.040845           -25.414218
177                 0.969765           -43.034104
178                 1.013212           -27.222766
179                 1.043661           -49.644427
180                 1.029532           -25.484159
181                 1.040586           -36.435658
182                 1.035560           40.204236
183                 1.031465           -26.041147
184                 1.037533           -11.199426
185                 1.007995           -3.699898
186                 1.009643           -27.793016
187                 1.002469           -35.687639
188                 1.015218           -19.124733
189                 1.001230           -25.519249
190                 1.025544           -18.918528
191                 1.016228           -35.698510
192                 1.048355           66.710672
193                 1.031332           25.519883
194                 1.029310           13.725841
195                 1.048912           -8.501632
196                 1.068851           -25.766089
197                 1.099985           46.037110
198                 1.011285           -15.654631
199                 1.017684           1.181522
200                 1.010977           62.266156
...

计算始于2024-12-17 20:57:15
计算的节点数为：13659 个
潮流迭代的次数为：10 次
运行时长为7.753秒
最大不平衡量为: 6.5183e-12
平衡节点功率(MVA):154.76426+1460.0008i
节点编号	节点电压幅值	节点电压角度
1                 1.031695           0.000000
2                 1.002501           -176.052059
3                 0.982250           -175.088646
4                 1.005106           -155.331939
5                 0.990360           -159.220749
6                 1.004435           -143.543897
7                 0.979089           172.671133
8                 1.023893           -179.855350
9                 0.995357           -152.423176
10                 0.935542           -179.258048
11                 1.038514           -164.259973
12                 1.004054           -67.776552
13                 1.046256           -146.516757
14                 1.029138           -161.692593
15                 0.967332           -176.693428
16                 1.048400           -171.862283
17                 1.010385           173.548702
18                 1.043087           -154.781139
19                 1.029816           172.954998
20                 0.995808           -135.618191
21                 1.024265           -178.985274
22                 1.012636           -130.763630
23                 1.023306           -119.266657
24                 0.977830           -178.793010
25                 1.011878           -135.106491
26                 1.032352           -159.289459
27                 1.032372           -155.815003
28                 0.999448           -170.062465
29                 1.033319           -164.679993
30                 1.015485           -170.477027
31                 1.029543           -124.655963
32                 1.010195           -139.870097
33                 1.018631           -177.507799
34                 1.049810           -124.642106
35                 1.009838           -176.503712
36                 0.983089           -151.111356
37                 1.028088           -174.889163
38                 0.918505           -178.671284
39                 1.073284           -165.764872
40                 1.002804           178.972967
41                 1.020846           -176.505397
42                 0.985213           -139.096841
43                 1.023166           -168.301014
44                 0.990869           -177.020226
45                 1.012099           175.187954
46                 1.040636           -164.880897
47                 0.975607           -172.507045
48                 1.056678           -111.664621
49                 0.998828           -176.345404
50                 0.983503           -174.698787
51                 1.011416           -123.161273
52                 0.988126           -151.548445
53                 1.016104           172.595955
54                 1.021005           -142.822619
55                 1.037255           -159.550836
56                 1.043659           -168.802723
57                 0.954270           -172.452434
58                 0.981117           -170.734627
59                 1.038613           -169.789739
60                 1.000803           -173.767125
61                 1.047449           -133.686134
62                 1.058268           -151.088035
63                 1.058268           -151.088035
64                 1.008598           173.861711
65                 0.999113           -137.596049
66                 1.034768           -157.633790
67                 0.975751           -172.163969
68                 1.035023           -176.663367
69                 1.035023           -176.663367
70                 1.006091           -172.969137
71                 1.020293           -152.639181
72                 1.020293           -152.639181
73                 0.994073           -127.993774
74                 1.024987           -148.136467
75                 1.024987           -148.136467
76                 1.024987           -148.136467
77                 1.038344           -155.775204
78                 1.027383           -148.113311
79                 1.016716           -141.232960
80                 1.007912           -154.245920
81                 0.990484           -152.596746
82                 1.003644           -155.993179
83                 1.017167           -161.390923
84                 0.990347           -179.465281
85                 1.024564           -161.797723
86                 1.023881           -171.028094
87                 1.014589           -175.677324
88                 1.014589           -175.677324
89                 1.067038           -91.459401
90                 0.965698           -170.640373
91                 1.010261           -132.417300
92                 1.056379           -167.500042
93                 0.933000           -177.252848
94                 1.022611           -145.363288
95                 0.998108           -163.439533
96                 1.043225           -170.463821
97                 1.043225           -170.463821
98                 1.043225           -170.463821
99                 1.031885           -177.918664
100                 1.031885           -177.918664
101                 1.043225           -170.463821
102                 1.043225           -170.463821
103                 0.997002           -138.858150
104                 1.052257           -118.002937
105                 1.142365           -166.116794
106                 1.042008           -134.214751
107                 1.028153           -85.587431
108                 1.020223           -179.396262
109                 0.997951           -179.149828
110                 1.051233           -77.049766
111                 1.040708           -168.085564
112                 1.014803           168.353976
113                 1.056732           -111.654937
114                 1.030832           -175.754341
115                 1.019000           -168.940423
116                 1.015752           171.259579
117                 0.982673           -163.882495
118                 1.005862           -123.471873
119                 1.047392           -169.331464
120                 0.992228           -75.960571
121                 1.045359           -156.536285
122                 0.988692           -123.824640
123                 1.026017           -119.471711
124                 1.046427           -167.991531
125                 0.979547           -124.174418
126                 1.054260           -170.002170
127                 1.015987           -158.133132
128                 0.992500           -170.678273
129                 0.998845           -140.804612
130                 1.032578           -165.446144
131                 1.009065           -133.948397
132                 0.996117           -135.616850
133                 1.042317           -153.596667
134                 1.044129           -170.703753
135                 1.030832           -175.754341
136                 1.049674           -77.742366
137                 1.037282           -164.582108
138                 0.998661           -167.090051
139                 0.982796           -175.593473
140                 1.008176           -152.773598
141                 1.080065           -140.100362
142                 1.010128           -166.616265
143                 1.042718           -173.719112
144                 1.034631           -158.186949
145                 1.040587           -128.452896
146                 1.044313           -129.565849
147                 1.044313           -129.565849
148                 1.014043           -132.738692
149                 0.998575           170.962246
150                 1.035764           -173.452628
151                 1.023215           -148.409226
152                 0.955891           165.950422
153                 1.027348           -146.777909
154                 1.052520           -89.382822
155                 1.001838           -172.005985
156                 1.034597           -147.633137
157                 0.993128           -178.790570
158                 1.030549           -153.012428
159                 1.003562           -159.507387
160                 1.005182           -154.868678
161                 1.034597           -147.633137
162                 1.034597           -147.633137
163                 0.999237           -176.875739
164                 1.041956           -162.923704
165                 1.030832           -175.754341
166                 1.060049           -147.402371
167                 1.025220           -151.667857
168                 0.982816           -131.490536
169                 1.044239           -157.188227
170                 0.968995           -167.321773
171                 1.004257           -175.973866
172                 0.954232           -172.687863
173                 1.071444           -165.528904
174                 0.983009           -176.060758
175                 1.055556           -168.892358
176                 0.994654           -128.952103
177                 1.039899           -159.335759
178                 1.066285           -127.702358
179                 1.023144           -175.463302
180                 0.938903           -174.967919
181                 1.020300           -154.204192
182                 1.054937           -161.828238
183                 1.002847           -165.850372
184                 1.020189           -153.395633
185                 1.009939           -149.893146
186                 1.043198           174.477511
187                 1.026667           -178.719143
188                 1.021381           171.763703
189                 1.043156           177.960085
190                 1.006844           -135.938940
191                 0.973828           -135.774302
192                 1.006618           -159.623244
193                 0.982938           -176.722310
194                 0.983957           -75.661683
195                 1.058915           179.929330
196                 1.021915           -176.134276
197                 1.005341           -167.908226
198                 0.999633           -166.390040
199                 1.029709           -120.044951
200                 0.982030           -140.783375
...
